LAMMPS (10 Feb 2015)
# input script for topotools tutorial step 2a
units real
boundary p p p
atom_style full

read_restart 64xmethane-eq.restart
  orthogonal box = (-8.297 -8.1455 -7.2013) to (8.3174 8.1829 7.1735)
  320 atoms
  256 bonds
  384 angles

# interaction styles
pair_style lj/cut/coul/cut 12.0
bond_style harmonic
angle_style harmonic
#dihedral_style opls
pair_modify mix geometric tail yes

# OPLS considers 1-4 interactions with 50%.
special_bonds lj/coul 0.0 0.0 0.5

# force field parameters
pair_coeff   1 1  0.066 3.5      # CT
pair_coeff   2 2  0.03  2.5      # HC
# the remaining parameters are inferred from mixing.
bond_coeff   1   340.0   1.09    # CT-HC
angle_coeff  1    33.0 107.8     # HC-CT-HC

# equilibration. real methane freezes at 91K and boils at 112K
# so we hope the force field has it as a liquid at 100K.
timestep 0.25
reset_timestep 0
neighbor 1.5 bin
neigh_modify every 10 delay 20 check yes
thermo 400
thermo_style one

fix 2 all nvt temp 100.0 100.0 100.0

# equilibration trajectory

# dump 1 all dcd 400 64xmethane-nvt.dcd
dump 1 all custom 400 64xmethane-nvt.lammpstrj id type x y z ix iy iz
#dump_modify 1 unwrap no

# output log
# log log.64xmethane-nvt

# 10.0ps
run 40000
  1 neighbor list requests
  update every 10 steps, delay 20 steps, check yes
Step Temp E_pair E_mol TotEng Press
0    99.699704   -154.31804    64.495298    4.9795486   -2841.6646
Averages over the last 51 of 101 rows, steps 20000 to 40000:
Temp E_pair E_mol TotEng Press
99.5284 -110.018 66.26 50.8817 -525.3
Loop time of 128.128 on 1 procs for 40000 steps with 320 atoms

Pair  time (%) = 122.114 (95.3066)
Bond  time (%) = 1.99746 (1.55896)
Neigh time (%) = 1.6241 (1.26756)
Comm  time (%) = 1.58726 (1.23881)
Outpt time (%) = 0.103604 (0.0808597)
Other time (%) = 0.701099 (0.547186)

# keep a restart of this, too.
write_restart 64xmethane-nvt.restart
# this still has not been relaxed for pressure,
# but it should be pretty close.
